/*--------------------------------*- C++ -*----------------------------------*\
  =========                 |
  \\      /  F ield         | OpenFOAM: The Open Source CFD Toolbox
   \\    /   O peration     | Website:  https://openfoam.org
    \\  /    A nd           | Version:  10
     \\/     M anipulation  |
\*---------------------------------------------------------------------------*/
FoamFile
{
    format      ascii;
    class       volScalarField;
    object      p;
}
// * * * * * * * * * * * * * * * * * * * * * * * * * * * * * * * * * * * * * //

dimensions      [1 -1 -2 0 0 0 0];

internalField   uniform 1e5;

boundaryField
{

    building
    {
        type            calculated;
        value           $internalField;
    }

    buibottom
    {
        type            calculated;
        value           $internalField;
    }

    inlet
    {
        type            calculated;
        value           $internalField;
    }
    bottom
    {
        type            calculated;
        value           $internalField;
    }

    sides
    {
        type            calculated;
        value           $internalField;
    }

    top
    {
        type            calculated;
        value           $internalField;
    }
    window
    {
        type            calculated;
        value           $internalField;
    }
    defaultFaces
    {
        type            calculated;
        value           $internalField;
    }
}

// ************************************************************************* //
