/*--------------------------------*- C++ -*----------------------------------*\
  =========                 |
  \\      /  F ield         | OpenFOAM: The Open Source CFD Toolbox
   \\    /   O peration     | Website:  https://openfoam.org
    \\  /    A nd           | Version:  10
     \\/     M anipulation  |
\*---------------------------------------------------------------------------*/
FoamFile
{
    format      ascii;
    class       polyBoundaryMesh;
    location    "constant/polyMesh";
    object      boundary;
}
// * * * * * * * * * * * * * * * * * * * * * * * * * * * * * * * * * * * * * //

5
(
    wtwalls
    {
        type            wall;
        physicalType    wall;
        inGroups        List<word> 1(wall);
        nFaces          3154;
        startFace       25967;
    }
    inlet
    {
        type            patch;
        physicalType    patch;
        nFaces          532;
        startFace       29121;
    }
    outlet
    {
        type            patch;
        physicalType    patch;
        nFaces          532;
        startFace       29653;
    }
    building0
    {
        type            wall;
        inGroups        List<word> 
2
(
wall
baffleFaces
)
;
        nFaces          130;
        startFace       30185;
    }
    building1
    {
        type            wall;
        inGroups        List<word> 
2
(
wall
baffleFaces
)
;
        nFaces          130;
        startFace       30315;
    }
)

// ************************************************************************* //
