/*--------------------------------*- C++ -*----------------------------------*\
  =========                 |
  \\      /  F ield         | OpenFOAM: The Open Source CFD Toolbox
   \\    /   O peration     | Website:  https://openfoam.org
    \\  /    A nd           | Version:  10
     \\/     M anipulation  |
\*---------------------------------------------------------------------------*/
FoamFile
{
    format      ascii;
    class       volScalarField;
    location    "0";
    object      epsilon;
}
// * * * * * * * * * * * * * * * * * * * * * * * * * * * * * * * * * * * * * //

dimensions      [0 2 -3 0 0 0 0];

internalField   uniform 0.03;

boundaryField
{
    wtwalls
    {
        type            epsilonWallFunction;
        value           uniform 0.03;
    }
    inlet
    {
        type            fixedValue;
        value           uniform 0.03;
    }
    outlet
    {
        type            inletOutlet;
        inletValue      uniform 0.03;
        value           uniform 0.03;
    }
    building0
    {
        type            epsilonWallFunction;
        value           uniform 0.03;
    }
    building1
    {
        type            epsilonWallFunction;
        value           uniform 0.03;
    }
}


// ************************************************************************* //
